REMARK SMILES CCN(Cc1cnn(-c2ccccc2)c1)C(=O)Nc1ccc(C)cc1
REMARK SMILES IDX 3 1 2 2 1 3 4 4 5 5 6 6 15 7 7 8 8 9 9 10 10 11 14 12 11 13
REMARK SMILES IDX 13 14 12 15 16 16 18 17 17 18 19 20 20 21 25 22 21 23 24 24
REMARK SMILES IDX 22 25 23 26
REMARK H PARENT 18 19
ROOT
ATOM      1  N   UNL     1      -0.297   0.823   1.599  1.00  0.00    -0.320 N 
ENDROOT
BRANCH   1   2
ATOM      2  C   UNL     1       0.302   2.086   1.986  1.00  0.00     0.118 C 
ATOM      3  C   UNL     1      -0.239   2.386   3.382  1.00  0.00     0.027 C 
ENDBRANCH   1   2
BRANCH   1   4
ATOM      4  C   UNL     1       0.474  -0.334   1.973  1.00  0.00     0.160 C 
BRANCH   4   5
ATOM      5  C   UNL     1       1.442  -0.753   0.944  1.00  0.00     0.010 A 
ATOM      6  C   UNL     1       1.337  -1.634  -0.133  1.00  0.00     0.141 A 
ATOM      7  C   UNL     1       2.746  -0.248   0.928  1.00  0.00     0.120 A 
ATOM      8  N   UNL     1       2.512  -1.660  -0.765  1.00  0.00    -0.176 NA
ATOM      9  N   UNL     1       3.351  -0.841  -0.141  1.00  0.00    -0.241 N 
BRANCH   9  10
ATOM     10  C   UNL     1       4.720  -0.560  -0.478  1.00  0.00     0.065 A 
ATOM     11  C   UNL     1       5.095   0.098  -1.627  1.00  0.00     0.028 A 
ATOM     12  C   UNL     1       5.633  -1.011   0.455  1.00  0.00     0.028 A 
ATOM     13  C   UNL     1       6.428   0.334  -1.888  1.00  0.00     0.002 A 
ATOM     14  C   UNL     1       6.983  -0.773   0.192  1.00  0.00     0.002 A 
ATOM     15  C   UNL     1       7.348  -0.115  -0.957  1.00  0.00     0.000 A 
ENDBRANCH   9  10
ENDBRANCH   4   5
ENDBRANCH   1   4
BRANCH   1  16
ATOM     16  C   UNL     1      -1.540   0.865   0.914  1.00  0.00     0.322 C 
ATOM     17  N   UNL     1      -2.273  -0.241   0.460  1.00  0.00    -0.308 N 
ATOM     18  O   UNL     1      -1.983   2.024   0.721  1.00  0.00    -0.248 OA
ATOM     19  H   UNL     1      -1.768  -1.126   0.699  1.00  0.00     0.171 HD
BRANCH  17  20
ATOM     20  C   UNL     1      -3.501  -0.279  -0.221  1.00  0.00     0.042 A 
ATOM     21  C   UNL     1      -4.273   0.772  -0.600  1.00  0.00     0.026 A 
ATOM     22  C   UNL     1      -4.014  -1.512  -0.559  1.00  0.00     0.026 A 
ATOM     23  C   UNL     1      -5.471   0.679  -1.266  1.00  0.00     0.005 A 
ATOM     24  C   UNL     1      -5.210  -1.657  -1.226  1.00  0.00     0.005 A 
ATOM     25  C   UNL     1      -5.961  -0.560  -1.592  1.00  0.00    -0.051 A 
ATOM     26  C   UNL     1      -7.252  -0.704  -2.311  1.00  0.00     0.044 C 
ENDBRANCH  17  20
ENDBRANCH   1  16
TORSDOF 6
