REMARK SMILES O=C(NCCNC(=O)N1CCCC1)c1cccs1
REMARK SMILES IDX 4 1 3 2 2 3 1 4 14 6 15 7 18 8 16 9 17 10 5 11 6 12 7 13
REMARK SMILES IDX 9 14 10 15 13 16 11 17 12 18 8 20
REMARK H PARENT 3 5 6 19
ROOT
ATOM      1  C   UNL     1       0.905   2.667   0.976  1.00  0.00     0.137 C 
ENDROOT
BRANCH   1   2
ATOM      2  N   UNL     1       1.809   1.937   0.177  1.00  0.00    -0.350 N 
ATOM      3  C   UNL     1       2.657   1.014   0.881  1.00  0.00     0.261 C 
ATOM      4  O   UNL     1       2.514   0.948   2.119  1.00  0.00    -0.268 OA
ATOM      5  H   UNL     1       1.890   2.030  -0.866  1.00  0.00     0.163 HD
BRANCH   3   6
ATOM      6  C   UNL     1       3.618   0.237   0.043  1.00  0.00     0.092 A 
ATOM      7  C   UNL     1       4.483  -0.669   0.546  1.00  0.00     0.025 A 
ATOM      8  S   UNL     1       3.806   0.333  -1.637  1.00  0.00    -0.139 S 
ATOM      9  C   UNL     1       5.335  -1.345  -0.273  1.00  0.00     0.012 A 
ATOM     10  C   UNL     1       5.183  -0.963  -1.721  1.00  0.00     0.065 A 
ENDBRANCH   3   6
ENDBRANCH   1   2
BRANCH   1  11
ATOM     11  C   UNL     1      -0.138   2.009   1.767  1.00  0.00     0.139 C 
BRANCH  11  12
ATOM     12  N   UNL     1      -1.146   1.259   1.061  1.00  0.00    -0.336 N 
ATOM     13  C   UNL     1      -1.122   0.138   0.198  1.00  0.00     0.317 C 
ATOM     14  N   UNL     1      -2.294  -0.419  -0.382  1.00  0.00    -0.325 N 
ATOM     15  C   UNL     1      -3.720  -0.072  -0.295  1.00  0.00     0.121 C 
ATOM     16  C   UNL     1      -2.342  -1.559  -1.270  1.00  0.00     0.121 C 
ATOM     17  C   UNL     1      -4.445  -1.396  -0.220  1.00  0.00     0.023 C 
ATOM     18  C   UNL     1      -3.507  -2.400  -0.850  1.00  0.00     0.023 C 
ATOM     19  H   UNL     1      -2.161   1.588   1.187  1.00  0.00     0.165 HD
ATOM     20  O   UNL     1      -0.027  -0.367  -0.054  1.00  0.00    -0.249 OA
ENDBRANCH  11  12
ENDBRANCH   1  11
TORSDOF 4
