REMARK SMILES CC(=O)NCCCNC(=O)c1ccnc2cccc(Cl)c12
REMARK SMILES IDX 6 1 5 2 4 3 2 4 1 5 3 6 7 8 8 9 9 10 10 12 11 13 12 14 21 15
REMARK SMILES IDX 13 16 19 17 15 18 14 19 18 20 16 21 17 22 20 23
REMARK H PARENT 4 7 8 11
ROOT
ATOM      1  C   UNL     1       2.127  -0.933  -0.432  1.00  0.00     0.042 C 
ENDROOT
BRANCH   1   2
ATOM      2  C   UNL     1       3.358  -1.774  -0.637  1.00  0.00     0.117 C 
BRANCH   2   3
ATOM      3  N   UNL     1       4.480  -0.924  -1.080  1.00  0.00    -0.356 N 
ATOM      4  C   UNL     1       4.919   0.147  -0.224  1.00  0.00     0.216 C 
ATOM      5  C   UNL     1       6.034   1.105  -0.528  1.00  0.00     0.114 C 
ATOM      6  O   UNL     1       4.474   0.474   0.891  1.00  0.00    -0.275 OA
ATOM      7  H   UNL     1       5.073  -0.935  -1.953  1.00  0.00     0.163 HD
ENDBRANCH   2   3
ENDBRANCH   1   2
BRANCH   1   8
ATOM      8  C   UNL     1       0.991  -1.827   0.022  1.00  0.00     0.118 C 
BRANCH   8   9
ATOM      9  N   UNL     1      -0.196  -1.013   0.275  1.00  0.00    -0.352 N 
ATOM     10  C   UNL     1      -0.896  -0.187  -0.659  1.00  0.00     0.252 C 
ATOM     11  H   UNL     1      -0.570  -1.049   1.280  1.00  0.00     0.163 HD
ATOM     12  O   UNL     1      -0.405  -0.223  -1.840  1.00  0.00    -0.269 OA
BRANCH  10  13
ATOM     13  C   UNL     1      -2.031   0.553  -0.119  1.00  0.00     0.052 A 
ATOM     14  C   UNL     1      -1.480   1.568   0.683  1.00  0.00     0.034 A 
ATOM     15  C   UNL     1      -3.385   0.484  -0.217  1.00  0.00     0.032 A 
ATOM     16  C   UNL     1      -2.262   2.491   1.368  1.00  0.00     0.112 A 
ATOM     17  C   UNL     1      -3.796  -0.533  -1.012  1.00  0.00     0.051 A 
ATOM     18  C   UNL     1      -4.135   1.417   0.476  1.00  0.00     0.072 A 
ATOM     19  N   UNL     1      -3.604   2.377   1.233  1.00  0.00    -0.256 NA
ATOM     20  C   UNL     1      -5.169  -0.655  -1.151  1.00  0.00     0.021 A 
ATOM     21  C   UNL     1      -5.515   1.255   0.305  1.00  0.00     0.029 A 
ATOM     22  C   UNL     1      -6.033   0.236  -0.496  1.00  0.00     0.004 A 
ATOM     23  Cl  UNL     1      -2.741  -1.651  -1.821  1.00  0.00    -0.084 Cl
ENDBRANCH  10  13
ENDBRANCH   8   9
ENDBRANCH   1   8
TORSDOF 5
