REMARK SMILES C#CCCOc1ccc(C(=O)NCc2cccs2)cc1
REMARK SMILES IDX 5 1 4 2 3 3 2 4 1 5 6 6 7 7 20 8 8 9 19 10 9 11 10 12 12 13
REMARK SMILES IDX 11 14 13 16 14 17 15 18 18 19 16 20 17 21
REMARK H PARENT 12 15
ROOT
ATOM      1  O   UNL     1       3.734  -0.563   1.056  1.00  0.00    -0.493 OA
ENDROOT
BRANCH   1   2
ATOM      2  C   UNL     1       4.921  -0.639   0.363  1.00  0.00     0.242 C 
BRANCH   2   3
ATOM      3  C   UNL     1       4.899  -1.491  -0.857  1.00  0.00     0.130 C 
BRANCH   3   4
ATOM      4  C   UNL     1       6.265  -1.428  -1.431  1.00  0.00    -0.103 C 
ATOM      5  C   UNL     1       7.369  -1.379  -1.908  1.00  0.00     0.004 C 
ENDBRANCH   3   4
ENDBRANCH   2   3
ENDBRANCH   1   2
BRANCH   1   6
ATOM      6  C   UNL     1       2.506  -0.113   0.737  1.00  0.00     0.119 A 
ATOM      7  C   UNL     1       1.916   0.453  -0.364  1.00  0.00     0.047 A 
ATOM      8  C   UNL     1       1.659  -0.293   1.842  1.00  0.00     0.047 A 
ATOM      9  C   UNL     1       0.597   0.830  -0.422  1.00  0.00     0.017 A 
ATOM     10  C   UNL     1       0.310   0.079   1.820  1.00  0.00     0.017 A 
ATOM     11  C   UNL     1      -0.211   0.641   0.676  1.00  0.00     0.040 A 
BRANCH  11  12
ATOM     12  C   UNL     1      -1.603   1.063   0.548  1.00  0.00     0.251 C 
ATOM     13  N   UNL     1      -2.622   0.976   1.525  1.00  0.00    -0.347 N 
ATOM     14  O   UNL     1      -1.978   1.569  -0.547  1.00  0.00    -0.269 OA
ATOM     15  H   UNL     1      -2.307   0.550   2.449  1.00  0.00     0.164 HD
BRANCH  13  16
ATOM     16  C   UNL     1      -3.968   1.413   1.320  1.00  0.00     0.163 C 
BRANCH  16  17
ATOM     17  C   UNL     1      -4.716   0.789   0.267  1.00  0.00     0.024 A 
ATOM     18  C   UNL     1      -5.520  -0.283   0.134  1.00  0.00     0.017 A 
ATOM     19  S   UNL     1      -4.681   1.514  -1.408  1.00  0.00    -0.147 S 
ATOM     20  C   UNL     1      -6.122  -0.660  -1.017  1.00  0.00     0.012 A 
ATOM     21  C   UNL     1      -5.797   0.253  -2.152  1.00  0.00     0.065 A 
ENDBRANCH  16  17
ENDBRANCH  13  16
ENDBRANCH  11  12
ENDBRANCH   1   6
TORSDOF 7
