REMARK SMILES Cc1noc(C)c1CC(=O)Nc1cccc(C(F)(F)F)c1
REMARK SMILES IDX 9 1 10 2 11 3 8 5 7 6 2 7 3 8 4 9 5 10 1 11 6 12 12 13 13 14
REMARK SMILES IDX 21 15 14 16 16 17 15 18 17 19 18 20 19 21 20 22
REMARK H PARENT 11 4
ROOT
ATOM      1  C   UNL     1       0.665  -0.230  -0.139  1.00  0.00     0.228 C 
ATOM      2  O   UNL     1       0.725  -0.161   1.139  1.00  0.00    -0.274 OA
ATOM      3  N   UNL     1      -0.485  -0.552  -0.878  1.00  0.00    -0.326 N 
ATOM      4  H   UNL     1      -0.507  -0.602  -1.920  1.00  0.00     0.169 HD
ENDROOT
BRANCH   1   5
ATOM      5  C   UNL     1       1.866   0.042  -0.937  1.00  0.00     0.141 C 
BRANCH   5   6
ATOM      6  C   UNL     1       3.048   0.372  -0.138  1.00  0.00     0.027 A 
ATOM      7  C   UNL     1       3.889  -0.434   0.598  1.00  0.00     0.084 A 
ATOM      8  N   UNL     1       4.835   0.321   1.162  1.00  0.00    -0.085 NA
ATOM      9  O   UNL     1       4.642   1.581   0.823  1.00  0.00    -0.361 OA
ATOM     10  C   UNL     1       3.572   1.641   0.040  1.00  0.00     0.137 A 
ATOM     11  C   UNL     1       3.746  -1.918   0.729  1.00  0.00     0.071 C 
ATOM     12  C   UNL     1       3.051   2.908  -0.539  1.00  0.00     0.091 C 
ENDBRANCH   5   6
ENDBRANCH   1   5
BRANCH   3  13
ATOM     13  C   UNL     1      -1.789  -0.866  -0.491  1.00  0.00     0.041 A 
ATOM     14  C   UNL     1      -2.333  -2.104  -0.201  1.00  0.00     0.026 A 
ATOM     15  C   UNL     1      -2.645   0.236  -0.391  1.00  0.00     0.039 A 
ATOM     16  C   UNL     1      -3.674  -2.229   0.172  1.00  0.00     0.003 A 
ATOM     17  C   UNL     1      -3.981   0.103  -0.018  1.00  0.00     0.058 A 
ATOM     18  C   UNL     1      -4.492  -1.137   0.263  1.00  0.00     0.013 A 
BRANCH  17  19
ATOM     19  C   UNL     1      -4.862   1.313   0.076  1.00  0.00     0.416 C 
ATOM     20  F   UNL     1      -4.445   2.244  -0.844  1.00  0.00    -0.166 F 
ATOM     21  F   UNL     1      -6.182   0.968  -0.062  1.00  0.00    -0.166 F 
ATOM     22  F   UNL     1      -4.664   1.849   1.328  1.00  0.00    -0.166 F 
ENDBRANCH  17  19
ENDBRANCH   3  13
TORSDOF 4
