REMARK SMILES CCc1oncc1C(=O)NCCNc1ncccc1Cl
REMARK SMILES IDX 11 1 10 2 8 3 9 4 7 6 3 7 4 8 5 9 6 10 2 11 1 12 12 13 13 14
REMARK SMILES IDX 14 16 15 17 19 18 16 19 18 20 17 21 20 22
REMARK H PARENT 10 5 13 15
ROOT
ATOM      1  C   UNL     1      -0.473  -1.937  -0.081  1.00  0.00     0.137 C 
ENDROOT
BRANCH   1   2
ATOM      2  N   UNL     1      -1.165  -0.708  -0.075  1.00  0.00    -0.350 N 
ATOM      3  C   UNL     1      -1.115   0.617   0.399  1.00  0.00     0.256 C 
ATOM      4  O   UNL     1      -0.049   0.742   1.082  1.00  0.00    -0.269 OA
ATOM      5  H   UNL     1      -2.063  -0.779  -0.642  1.00  0.00     0.163 HD
BRANCH   3   6
ATOM      6  C   UNL     1      -2.025   1.720   0.226  1.00  0.00     0.102 A 
ATOM      7  C   UNL     1      -3.292   2.019  -0.222  1.00  0.00     0.149 A 
ATOM      8  O   UNL     1      -3.575   3.281  -0.087  1.00  0.00    -0.361 OA
ATOM      9  N   UNL     1      -2.555   3.904   0.443  1.00  0.00    -0.087 NA
ATOM     10  C   UNL     1      -1.603   2.996   0.644  1.00  0.00     0.172 A 
BRANCH   7  11
ATOM     11  C   UNL     1      -4.158   0.940  -0.786  1.00  0.00     0.076 C 
ATOM     12  C   UNL     1      -4.604  -0.001   0.299  1.00  0.00     0.012 C 
ENDBRANCH   7  11
ENDBRANCH   3   6
ENDBRANCH   1   2
BRANCH   1  13
ATOM     13  C   UNL     1       0.870  -2.073  -0.681  1.00  0.00     0.135 C 
BRANCH  13  14
ATOM     14  N   UNL     1       1.956  -1.348  -0.222  1.00  0.00    -0.367 N 
ATOM     15  H   UNL     1       1.438  -0.515  -0.642  1.00  0.00     0.162 HD
BRANCH  14  16
ATOM     16  C   UNL     1       3.033  -0.540   0.220  1.00  0.00     0.144 A 
ATOM     17  N   UNL     1       3.385   0.733   0.171  1.00  0.00    -0.238 NA
ATOM     18  C   UNL     1       3.825  -1.557   0.806  1.00  0.00     0.083 A 
ATOM     19  C   UNL     1       4.547   1.165   0.684  1.00  0.00     0.113 A 
ATOM     20  C   UNL     1       5.051  -1.095   1.346  1.00  0.00     0.026 A 
ATOM     21  C   UNL     1       5.372   0.239   1.270  1.00  0.00     0.022 A 
ATOM     22  Cl  UNL     1       3.670  -3.278   1.048  1.00  0.00    -0.080 Cl
ENDBRANCH  14  16
ENDBRANCH  13  14
ENDBRANCH   1  13
TORSDOF 6
