REMARK SMILES CCc1ccccc1C(=O)OCCN1CCOCC1
REMARK SMILES IDX 9 1 10 2 8 3 3 4 4 5 5 6 7 7 6 8 2 9 1 10 11 11 12 12 13 13
REMARK SMILES IDX 14 14 15 15 19 16 16 17 18 18 17 19
REMARK H PARENT
ROOT
ATOM      1  C   UNL     1      -1.301  -0.141  -0.501  1.00  0.00     0.338 C 
ATOM      2  O   UNL     1      -0.944   1.033  -0.683  1.00  0.00    -0.246 OA
ENDROOT
BRANCH   1   3
ATOM      3  C   UNL     1      -2.538  -0.768  -0.065  1.00  0.00     0.063 A 
ATOM      4  C   UNL     1      -3.588   0.058   0.258  1.00  0.00    -0.034 A 
ATOM      5  C   UNL     1      -4.768  -0.521   0.685  1.00  0.00     0.004 A 
ATOM      6  C   UNL     1      -4.928  -1.879   0.798  1.00  0.00     0.000 A 
ATOM      7  C   UNL     1      -2.701  -2.132   0.050  1.00  0.00     0.016 A 
ATOM      8  C   UNL     1      -3.872  -2.690   0.473  1.00  0.00     0.001 A 
BRANCH   4   9
ATOM      9  C   UNL     1      -3.656   1.529   0.212  1.00  0.00     0.033 C 
ATOM     10  C   UNL     1      -3.920   2.141  -1.115  1.00  0.00     0.009 C 
ENDBRANCH   4   9
ENDBRANCH   1   3
BRANCH   1  11
ATOM     11  O   UNL     1      -0.292  -1.013  -0.775  1.00  0.00    -0.461 OA
BRANCH  11  12
ATOM     12  C   UNL     1       1.005  -0.722  -1.200  1.00  0.00     0.248 C 
BRANCH  12  13
ATOM     13  C   UNL     1       1.741   0.144  -0.231  1.00  0.00     0.126 C 
BRANCH  13  14
ATOM     14  N   UNL     1       3.127   0.378  -0.683  1.00  0.00    -0.295 NA
ATOM     15  C   UNL     1       3.728   1.414   0.125  1.00  0.00     0.113 C 
ATOM     16  C   UNL     1       3.876  -0.873  -0.557  1.00  0.00     0.113 C 
ATOM     17  C   UNL     1       5.145   1.260   0.488  1.00  0.00     0.175 C 
ATOM     18  C   UNL     1       4.569  -0.869   0.815  1.00  0.00     0.175 C 
ATOM     19  O   UNL     1       5.653  -0.004   0.625  1.00  0.00    -0.379 OA
ENDBRANCH  13  14
ENDBRANCH  12  13
ENDBRANCH  11  12
ENDBRANCH   1  11
TORSDOF 6
