REMARK SMILES CC1(C)CN(c2ncc(N)cc2S(N)(=O)=O)CCO1
REMARK SMILES IDX 6 1 7 2 8 3 9 4 11 5 12 6 5 7 2 8 4 9 19 10 18 11 17 12 1 13
REMARK SMILES IDX 3 14 13 15 15 16 16 17 14 18 10 21
REMARK H PARENT 14 19 14 20 10 22 10 23
ROOT
ATOM      1  C   UNL     1       0.982   0.672   0.097  1.00  0.00     0.149 A 
ATOM      2  N   UNL     1       1.450   1.949   0.226  1.00  0.00    -0.236 NA
ATOM      3  C   UNL     1       2.781   2.128   0.422  1.00  0.00     0.139 A 
ATOM      4  C   UNL     1       3.681   1.090   0.498  1.00  0.00     0.052 A 
ATOM      5  C   UNL     1       3.211  -0.193   0.367  1.00  0.00     0.052 A 
ATOM      6  C   UNL     1       1.863  -0.351   0.169  1.00  0.00     0.126 A 
ENDROOT
BRANCH   1   7
ATOM      7  N   UNL     1      -0.427   0.757  -0.064  1.00  0.00    -0.350 N 
ATOM      8  C   UNL     1      -2.806   0.123   0.185  1.00  0.00     0.080 C 
ATOM      9  C   UNL     1      -1.540   0.551   0.865  1.00  0.00     0.153 C 
ATOM     10  O   UNL     1      -3.092   0.928  -0.908  1.00  0.00    -0.372 OA
ATOM     11  C   UNL     1      -2.126   0.927  -1.869  1.00  0.00     0.182 C 
ATOM     12  C   UNL     1      -0.724   1.120  -1.431  1.00  0.00     0.146 C 
ATOM     13  C   UNL     1      -3.932   0.346   1.182  1.00  0.00     0.044 C 
ATOM     14  C   UNL     1      -2.755  -1.336  -0.106  1.00  0.00     0.044 C 
ENDBRANCH   1   7
BRANCH   6  15
ATOM     15  S   UNL     1       1.190  -1.934  -0.044  1.00  0.00     0.241 S 
ATOM     16  O   UNL     1       0.621  -2.058  -1.446  1.00  0.00    -0.207 OA
ATOM     17  O   UNL     1       0.159  -2.316   0.944  1.00  0.00    -0.207 OA
BRANCH  15  18
ATOM     18  N   UNL     1       2.477  -3.123   0.027  1.00  0.00    -0.225 NA
ATOM     19  H   UNL     1       2.904  -3.262  -0.919  1.00  0.00     0.137 HD
ATOM     20  H   UNL     1       2.023  -4.030   0.313  1.00  0.00     0.137 HD
ENDBRANCH  15  18
ENDBRANCH   6  15
BRANCH   4  21
ATOM     21  N   UNL     1       5.075   1.262   0.703  1.00  0.00    -0.397 N 
ATOM     22  H   UNL     1       5.135   1.708   1.663  1.00  0.00     0.156 HD
ATOM     23  H   UNL     1       5.882   1.024   0.091  1.00  0.00     0.156 HD
ENDBRANCH   4  21
TORSDOF 4
