REMARK SMILES Cc1nn2c3nc(C(F)(F)F)nn3c2c1Cl
REMARK SMILES IDX 1 1 2 2 3 3 4 4 5 5 6 6 7 7 12 8 13 9 14 10 15 11 16 12 8 13
REMARK SMILES IDX 9 14 10 15 11 16
REMARK H PARENT
ROOT
ATOM      1  C   UNL     1       4.115  -0.145  -0.419  1.00  0.00     0.070 C 
ATOM      2  C   UNL     1       2.641  -0.065  -0.202  1.00  0.00     0.081 A 
ATOM      3  N   UNL     1       1.981   0.195   0.916  1.00  0.00    -0.167 NA
ATOM      4  N   UNL     1       0.670   0.186   0.741  1.00  0.00    -0.178 N 
ATOM      5  C   UNL     1      -0.674   0.223   0.771  1.00  0.00     0.258 A 
ATOM      6  N   UNL     1      -1.918   0.368   1.304  1.00  0.00    -0.185 NA
ATOM      7  C   UNL     1      -2.835   0.176   0.336  1.00  0.00     0.258 A 
ATOM      8  N   UNL     1      -2.130  -0.085  -0.780  1.00  0.00    -0.138 NA
ATOM      9  N   UNL     1      -0.838  -0.057  -0.522  1.00  0.00    -0.176 N 
ATOM     10  C   UNL     1       0.506  -0.099  -0.576  1.00  0.00     0.183 A 
ATOM     11  C   UNL     1       1.726  -0.268  -1.225  1.00  0.00     0.109 A 
ATOM     12  Cl  UNL     1       2.028  -0.640  -2.888  1.00  0.00    -0.078 Cl
ENDROOT
BRANCH   7  13
ATOM     13  C   UNL     1      -4.304   0.201   0.301  1.00  0.00     0.453 C 
ATOM     14  F   UNL     1      -4.790  -0.790  -0.537  1.00  0.00    -0.163 F 
ATOM     15  F   UNL     1      -4.833   0.011   1.581  1.00  0.00    -0.163 F 
ATOM     16  F   UNL     1      -4.803   1.415  -0.168  1.00  0.00    -0.163 F 
ENDBRANCH   7  13
TORSDOF 1
