REMARK SMILES Cc1oc(-c2cccs2)nc1C(=O)NC(C)C(C)C
REMARK SMILES IDX 12 1 13 2 14 3 11 5 2 6 3 7 4 8 10 9 1 10 5 11 6 12 9 13
REMARK SMILES IDX 7 14 8 15 15 16 16 17 17 18 18 19 19 20
REMARK H PARENT 14 4
ROOT
ATOM      1  C   UNL     1      -0.195  -0.198   0.631  1.00  0.00     0.273 C 
ATOM      2  O   UNL     1      -0.126  -0.064   1.901  1.00  0.00    -0.267 OA
ATOM      3  N   UNL     1      -1.552  -0.306   0.291  1.00  0.00    -0.348 N 
ATOM      4  H   UNL     1      -1.835  -0.423  -0.703  1.00  0.00     0.164 HD
ENDROOT
BRANCH   1   5
ATOM      5  C   UNL     1       0.941  -0.231  -0.268  1.00  0.00     0.170 A 
ATOM      6  C   UNL     1       1.209  -0.354  -1.609  1.00  0.00     0.134 A 
ATOM      7  O   UNL     1       2.504  -0.307  -1.809  1.00  0.00    -0.440 OA
ATOM      8  C   UNL     1       3.108  -0.160  -0.679  1.00  0.00     0.237 A 
ATOM      9  N   UNL     1       2.185  -0.110   0.285  1.00  0.00    -0.203 NA
ATOM     10  C   UNL     1       0.091  -0.511  -2.567  1.00  0.00     0.090 C 
BRANCH   8  11
ATOM     11  C   UNL     1       4.539  -0.066  -0.486  1.00  0.00     0.090 A 
ATOM     12  C   UNL     1       5.315   0.094   0.682  1.00  0.00     0.025 A 
ATOM     13  S   UNL     1       5.729  -0.143  -1.834  1.00  0.00    -0.139 S 
ATOM     14  C   UNL     1       6.656   0.151   0.554  1.00  0.00     0.012 A 
ATOM     15  C   UNL     1       7.275   0.049  -0.753  1.00  0.00     0.065 A 
ENDBRANCH   8  11
ENDBRANCH   1   5
BRANCH   3  16
ATOM     16  C   UNL     1      -2.694  -0.275   1.178  1.00  0.00     0.081 C 
ATOM     17  C   UNL     1      -3.471  -1.555   1.166  1.00  0.00     0.031 C 
BRANCH  16  18
ATOM     18  C   UNL     1      -3.572   0.931   0.924  1.00  0.00     0.005 C 
ATOM     19  C   UNL     1      -4.121   0.980  -0.462  1.00  0.00     0.009 C 
ATOM     20  C   UNL     1      -2.862   2.223   1.217  1.00  0.00     0.009 C 
ENDBRANCH  16  18
ENDBRANCH   3  16
TORSDOF 4
