REMARK SMILES COCCC(NC(=O)NC(C)C)c1ccccc1
REMARK SMILES IDX 4 1 3 2 2 3 1 4 5 5 6 6 7 7 9 8 8 10 10 12 11 13 12 14 13 15
REMARK SMILES IDX 14 16 18 17 15 18 17 19 16 20
REMARK H PARENT 6 9 9 11
ROOT
ATOM      1  C   UNL     1      -1.499  -0.331   1.924  1.00  0.00     0.058 C 
ENDROOT
BRANCH   1   2
ATOM      2  C   UNL     1      -2.912  -0.890   1.869  1.00  0.00     0.162 C 
BRANCH   2   3
ATOM      3  O   UNL     1      -2.990  -2.094   1.181  1.00  0.00    -0.385 OA
ATOM      4  C   UNL     1      -2.215  -3.074   1.751  1.00  0.00     0.194 C 
ENDBRANCH   2   3
ENDBRANCH   1   2
BRANCH   1   5
ATOM      5  C   UNL     1      -0.940  -0.072   0.569  1.00  0.00     0.116 C 
BRANCH   5   6
ATOM      6  N   UNL     1       0.403   0.460   0.571  1.00  0.00    -0.331 N 
ATOM      7  C   UNL     1       1.520  -0.250   0.027  1.00  0.00     0.315 C 
ATOM      8  N   UNL     1       2.815   0.305   0.050  1.00  0.00    -0.336 N 
ATOM      9  H   UNL     1       0.611   1.415   0.985  1.00  0.00     0.166 HD
ATOM     10  O   UNL     1       1.453  -1.389  -0.500  1.00  0.00    -0.249 OA
ATOM     11  H   UNL     1       3.009   1.243   0.458  1.00  0.00     0.165 HD
BRANCH   8  12
ATOM     12  C   UNL     1       3.981  -0.353  -0.479  1.00  0.00     0.077 C 
ATOM     13  C   UNL     1       5.027  -0.453   0.607  1.00  0.00     0.030 C 
ATOM     14  C   UNL     1       4.616   0.421  -1.616  1.00  0.00     0.030 C 
ENDBRANCH   8  12
ENDBRANCH   5   6
BRANCH   5  15
ATOM     15  C   UNL     1      -1.875   0.674  -0.314  1.00  0.00    -0.026 A 
ATOM     16  C   UNL     1      -2.807   0.222  -1.223  1.00  0.00     0.006 A 
ATOM     17  C   UNL     1      -1.726   2.052  -0.135  1.00  0.00     0.006 A 
ATOM     18  C   UNL     1      -3.558   1.139  -1.923  1.00  0.00     0.000 A 
ATOM     19  C   UNL     1      -2.499   2.953  -0.856  1.00  0.00     0.000 A 
ATOM     20  C   UNL     1      -3.427   2.482  -1.762  1.00  0.00     0.000 A 
ENDBRANCH   5  15
ENDBRANCH   1   5
TORSDOF 6
